18
Lattice="25.722025 0.000000 0.000000 0.000000 25.043641 0.000000 0.000000 0.000000 25.227567" Properties=species:S:1:pos:R:3
C 3.952208 -2.188989 1.741587
C 2.740100 -1.347015 1.238012
O 3.010580 -0.748819 0.040019
C 5.013352 -1.261153 2.327988
H 4.375305 -2.774067 0.911496
O 1.699427 -1.201009 1.859419
H 5.355392 -0.558047 1.555103
H 4.597281 -0.693635 3.173240
H 5.873381 -1.852187 2.669530
C 2.003222 0.188896 -0.489814
C 2.691817 1.159111 -1.497388
O 1.928374 2.269574 -1.722637
C 0.900193 -0.590671 -1.200592
H 1.582471 0.756458 0.353693
O 3.753743 0.930170 -2.054328
H 0.151356 0.108456 -1.598865
H 0.404773 -1.264100 -0.489186
H 1.321328 -1.178093 -2.029290
