18
Lattice="25.043641 0.000000 0.000000 0.000000 25.722025 0.000000 0.000000 0.000000 25.227567" Properties=species:S:1:pos:R:3
C 0.821943 0.941277 -1.741539
C 1.663916 -0.270832 -1.237964
O 2.262113 -0.000351 -0.039971
C 1.749779 2.002420 -2.327940
H 0.236865 1.364374 -0.911448
O 1.809922 -1.311504 -1.859371
H 2.452885 2.344460 -1.555055
H 2.317297 1.586350 -3.173192
H 1.158744 2.862449 -2.669482
C 3.199827 -1.007709 0.489862
C 4.170043 -0.319115 1.497435
O 5.280506 -1.082558 1.722685
C 2.420260 -2.110739 1.200640
H 3.767389 -1.428460 -0.353645
O 3.941102 0.742812 2.054375
H 3.119388 -2.859576 1.598913
H 1.746832 -2.606159 0.489234
H 1.832838 -1.689603 2.029338
